[General]
network = PQ
sim-time-limit = 100000min
simtime-resolution = s

[Config0]
**.source1.interArrivalTime =  0.001s
**.source1.numJobs = 0 
**.source2.interArrivalTime = 0.1min
**.server.serviceTime = exoponential(0.08min)
**.source1.jobType = 0
**.source2.jobType = 1

[Config1]
**.source1.interArrivalTime =  0.1min * 0.1
**.source2.interArrivalTime = 0.1min * 0.9
**.server.serviceTime = exoponential(0.08min)
**.source1.jobType = 0
**.source2.jobType = 1

[Config2]
**.source1.interArrivalTime =  0.1min * 0.2
**.source2.interArrivalTime = 0.1min * 0.8
**.server.serviceTime = exoponential(0.08min)
**.source1.jobType = 0
**.source2.jobType = 1
